Circuit: * C:\Users\franc\Documents\LTspiceXVII\schematics\led_matrix_driver_v2.asc

Limiting rise time of source v3 to 0.01
Limiting fall time of source v3 to 0.01
Limiting rise time of source v2 to 0.005
Limiting fall time of source v2 to 0.005
Direct Newton iteration for .op point succeeded.

Date: Sun May 19 00:20:54 2019
Total elapsed time: 0.307 seconds.

tnom = 27
temp = 27
method = modified trap
totiter = 1296
traniter = 1276
tranpoints = 538
accept = 451
rejected = 87
matrix size = 17
fillins = 2
solver = Normal
Matrix Compiler1: 1.02 KB object code size  0.2/0.1/[0.1]
Matrix Compiler2: 1.31 KB object code size  0.2/0.2/[0.1]

